output/CTMT/Cargas_BT_SA05_CTMT.dss
New "Load.BT_6425_M1" bus1="UC15168.1.4" phases=1 conn=delta model=2 kv=0.22 kw = 724.4193492614094 pf=0.92 status=variable vmaxpu=1.5 vminpu=0.93 daily="RES_2_SA" 
New "Load.BT_6425_M2" bus1="UC15168.1.4" phases=1 conn=delta model=3 kv=0.22 kw = 724.4193492614094 pf=0.92 status=variable vmaxpu=1.5 vminpu=0.93 daily="RES_2_SA"
 
New "Load.BT_7259_M1" bus1="UC15169.1.2.3.4" phases=3 conn=delta model=2 kv=0.38 kw = 788.812180306868 pf=0.92 status=variable vmaxpu=1.5 vminpu=0.93 daily="RES_2_SA" 
New "Load.BT_7259_M2" bus1="UC15169.1.2.3.4" phases=3 conn=delta model=3 kv=0.38 kw = 788.812180306868 pf=0.92 status=variable vmaxpu=1.5 vminpu=0.93 daily="RES_2_SA"
 
New "Load.BT_352_M1" bus1="UC15174.1.4" phases=1 conn=delta model=2 kv=0.22 kw = 1079.207421769982 pf=0.92 status=variable vmaxpu=1.5 vminpu=0.93 daily="RES_10_SA" 
New "Load.BT_352_M2" bus1="UC15174.1.4" phases=1 conn=delta model=3 kv=0.22 kw = 1079.207421769982 pf=0.92 status=variable vmaxpu=1.5 vminpu=0.93 daily="RES_10_SA"
 
New "Load.BT_2941_M1" bus1="UC13788.3.4" phases=1 conn=delta model=2 kv=0.22 kw = 685.7836506341341 pf=0.92 status=variable vmaxpu=1.5 vminpu=0.93 daily="RES_2_SA" 
New "Load.BT_2941_M2" bus1="UC13788.3.4" phases=1 conn=delta model=3 kv=0.22 kw = 685.7836506341341 pf=0.92 status=variable vmaxpu=1.5 vminpu=0.93 daily="RES_2_SA"
 
New "Load.BT_714_M1" bus1="UC15175.1.2.3.4" phases=3 conn=delta model=2 kv=0.38 kw = 891.8407099796017 pf=0.92 status=variable vmaxpu=1.5 vminpu=0.93 daily="RES_2_SA" 
New "Load.BT_714_M2" bus1="UC15175.1.2.3.4" phases=3 conn=delta model=3 kv=0.38 kw = 891.8407099796017 pf=0.92 status=variable vmaxpu=1.5 vminpu=0.93 daily="RES_2_SA"
 
New "Load.BT_7479_M1" bus1="ET1_159.2.3.4" phases=2 conn=delta model=2 kv=0.38 kw = 858.6987148249825 pf=0.92 status=variable vmaxpu=1.5 vminpu=0.93 daily="RES_3_SA" 
New "Load.BT_7479_M2" bus1="ET1_159.2.3.4" phases=2 conn=delta model=3 kv=0.38 kw = 858.6987148249825 pf=0.92 status=variable vmaxpu=1.5 vminpu=0.93 daily="RES_3_SA"
 
New "Load.BT_7575_M1" bus1="UC15178.3.4" phases=1 conn=delta model=2 kv=0.22 kw = 927.7156319033071 pf=0.92 status=variable vmaxpu=1.5 vminpu=0.93 daily="RES_1_SA" 
New "Load.BT_7575_M2" bus1="UC15178.3.4" phases=1 conn=delta model=3 kv=0.22 kw = 927.7156319033071 pf=0.92 status=variable vmaxpu=1.5 vminpu=0.93 daily="RES_1_SA"
 
New "Load.BT_6438_M1" bus1="UC15180.1.4" phases=1 conn=delta model=2 kv=0.22 kw = 528.0212145727605 pf=0.92 status=variable vmaxpu=1.5 vminpu=0.93 daily="RES_2_SA" 
New "Load.BT_6438_M2" bus1="UC15180.1.4" phases=1 conn=delta model=3 kv=0.22 kw = 528.0212145727605 pf=0.92 status=variable vmaxpu=1.5 vminpu=0.93 daily="RES_2_SA"
 
New "Load.BT_387_M1" bus1="UC15581.1.2.3.4" phases=3 conn=delta model=2 kv=0.38 kw = 0.0 pf=0.92 status=variable vmaxpu=1.5 vminpu=0.93 daily="RES_3_SA" 
New "Load.BT_387_M2" bus1="UC15581.1.2.3.4" phases=3 conn=delta model=3 kv=0.38 kw = 0.0 pf=0.92 status=variable vmaxpu=1.5 vminpu=0.93 daily="RES_3_SA"
 
New "Load.BT_7928_M1" bus1="UC15838.3.4" phases=1 conn=delta model=2 kv=0.22 kw = 0.0 pf=0.92 status=variable vmaxpu=1.5 vminpu=0.93 daily="RES_7_SA" 
New "Load.BT_7928_M2" bus1="UC15838.3.4" phases=1 conn=delta model=3 kv=0.22 kw = 0.0 pf=0.92 status=variable vmaxpu=1.5 vminpu=0.93 daily="RES_7_SA"
 
New "Load.BT_8263_M1" bus1="UC14653.1.2.3.4" phases=3 conn=delta model=2 kv=0.38 kw = 0.0 pf=0.92 status=variable vmaxpu=1.5 vminpu=0.93 daily="RES_3_SA" 
New "Load.BT_8263_M2" bus1="UC14653.1.2.3.4" phases=3 conn=delta model=3 kv=0.38 kw = 0.0 pf=0.92 status=variable vmaxpu=1.5 vminpu=0.93 daily="RES_3_SA"
 
New "Load.BT_7436_M1" bus1="UC10919.3.4" phases=1 conn=delta model=2 kv=0.22 kw = 0.0 pf=0.92 status=variable vmaxpu=1.5 vminpu=0.93 daily="RES_3_SA" 
New "Load.BT_7436_M2" bus1="UC10919.3.4" phases=1 conn=delta model=3 kv=0.22 kw = 0.0 pf=0.92 status=variable vmaxpu=1.5 vminpu=0.93 daily="RES_3_SA"
 
New "Load.BT_2214_M1" bus1="UC16152.1.4" phases=1 conn=delta model=2 kv=0.22 kw = 0.0 pf=0.92 status=variable vmaxpu=1.5 vminpu=0.93 daily="RES_7_SA" 
New "Load.BT_2214_M2" bus1="UC16152.1.4" phases=1 conn=delta model=3 kv=0.22 kw = 0.0 pf=0.92 status=variable vmaxpu=1.5 vminpu=0.93 daily="RES_7_SA"
 
New "Load.BT_2922_M1" bus1="UC2530.1.4" phases=1 conn=delta model=2 kv=0.22 kw = 0.0 pf=0.92 status=variable vmaxpu=1.5 vminpu=0.93 daily="RES_3_SA" 
New "Load.BT_2922_M2" bus1="UC2530.1.4" phases=1 conn=delta model=3 kv=0.22 kw = 0.0 pf=0.92 status=variable vmaxpu=1.5 vminpu=0.93 daily="RES_3_SA"
 
New "Load.BT_8626_M1" bus1="UC16140.1.2.3.4" phases=3 conn=delta model=2 kv=0.38 kw = 0.0 pf=0.92 status=variable vmaxpu=1.5 vminpu=0.93 daily="RES_3_SA" 
New "Load.BT_8626_M2" bus1="UC16140.1.2.3.4" phases=3 conn=delta model=3 kv=0.38 kw = 0.0 pf=0.92 status=variable vmaxpu=1.5 vminpu=0.93 daily="RES_3_SA"
 
New "Load.BT_288_M1" bus1="UC16156.3.4" phases=1 conn=delta model=2 kv=0.22 kw = 0.0 pf=0.92 status=variable vmaxpu=1.5 vminpu=0.93 daily="RES_7_SA" 
New "Load.BT_288_M2" bus1="UC16156.3.4" phases=1 conn=delta model=3 kv=0.22 kw = 0.0 pf=0.92 status=variable vmaxpu=1.5 vminpu=0.93 daily="RES_7_SA"
 
New "Load.BT_715_M1" bus1="UC16132.3.4" phases=1 conn=delta model=2 kv=0.22 kw = 0.0 pf=0.92 status=variable vmaxpu=1.5 vminpu=0.93 daily="COM_5_SA" 
New "Load.BT_715_M2" bus1="UC16132.3.4" phases=1 conn=delta model=3 kv=0.22 kw = 0.0 pf=0.92 status=variable vmaxpu=1.5 vminpu=0.93 daily="COM_5_SA"
 
New "Load.BT_1454_M1" bus1="UC8216.3.4" phases=1 conn=delta model=2 kv=0.22 kw = 0.0 pf=0.92 status=variable vmaxpu=1.5 vminpu=0.93 daily="RES_3_SA" 
New "Load.BT_1454_M2" bus1="UC8216.3.4" phases=1 conn=delta model=3 kv=0.22 kw = 0.0 pf=0.92 status=variable vmaxpu=1.5 vminpu=0.93 daily="RES_3_SA"
 
New "Load.BT_1169_M1" bus1="UC16139.2.4" phases=1 conn=delta model=2 kv=0.22 kw = 0.0 pf=0.92 status=variable vmaxpu=1.5 vminpu=0.93 daily="RES_3_SA" 
New "Load.BT_1169_M2" bus1="UC16139.2.4" phases=1 conn=delta model=3 kv=0.22 kw = 0.0 pf=0.92 status=variable vmaxpu=1.5 vminpu=0.93 daily="RES_3_SA"
 
New "Load.BT_2362_M1" bus1="UC16135.3.4" phases=1 conn=delta model=2 kv=0.22 kw = 0.0 pf=0.92 status=variable vmaxpu=1.5 vminpu=0.93 daily="RES_3_SA" 
New "Load.BT_2362_M2" bus1="UC16135.3.4" phases=1 conn=delta model=3 kv=0.22 kw = 0.0 pf=0.92 status=variable vmaxpu=1.5 vminpu=0.93 daily="RES_3_SA"
 
New "Load.BT_7328_M1" bus1="UC16138.3.4" phases=1 conn=delta model=2 kv=0.22 kw = 0.0 pf=0.92 status=variable vmaxpu=1.5 vminpu=0.93 daily="COM_5_SA" 
New "Load.BT_7328_M2" bus1="UC16138.3.4" phases=1 conn=delta model=3 kv=0.22 kw = 0.0 pf=0.92 status=variable vmaxpu=1.5 vminpu=0.93 daily="COM_5_SA"
 
New "Load.BT_1673_M1" bus1="UC8555.3.4" phases=1 conn=delta model=2 kv=0.22 kw = 0.0 pf=0.92 status=variable vmaxpu=1.5 vminpu=0.93 daily="RES_3_SA" 
New "Load.BT_1673_M2" bus1="UC8555.3.4" phases=1 conn=delta model=3 kv=0.22 kw = 0.0 pf=0.92 status=variable vmaxpu=1.5 vminpu=0.93 daily="RES_3_SA"
 
New "Load.BT_1124_M1" bus1="UC15362.2.3.4" phases=2 conn=delta model=2 kv=0.38 kw = 0.0 pf=0.92 status=variable vmaxpu=1.5 vminpu=0.93 daily="RES_7_SA" 
New "Load.BT_1124_M2" bus1="UC15362.2.3.4" phases=2 conn=delta model=3 kv=0.38 kw = 0.0 pf=0.92 status=variable vmaxpu=1.5 vminpu=0.93 daily="RES_7_SA"
 
New "Load.BT_84_M1" bus1="UC5102.1.4" phases=1 conn=delta model=2 kv=0.22 kw = 0.0 pf=0.92 status=variable vmaxpu=1.5 vminpu=0.93 daily="RES_3_SA" 
New "Load.BT_84_M2" bus1="UC5102.1.4" phases=1 conn=delta model=3 kv=0.22 kw = 0.0 pf=0.92 status=variable vmaxpu=1.5 vminpu=0.93 daily="RES_3_SA"
 
New "Load.BT_1414_M1" bus1="UC7753.1.4" phases=1 conn=delta model=2 kv=0.22 kw = 0.0 pf=0.92 status=variable vmaxpu=1.5 vminpu=0.93 daily="COM_5_SA" 
New "Load.BT_1414_M2" bus1="UC7753.1.4" phases=1 conn=delta model=3 kv=0.22 kw = 0.0 pf=0.92 status=variable vmaxpu=1.5 vminpu=0.93 daily="COM_5_SA"
 
New "Load.BT_6437_M1" bus1="UC12439.3.4" phases=1 conn=delta model=2 kv=0.22 kw = 195.6528717322745 pf=0.92 status=variable vmaxpu=1.5 vminpu=0.93 daily="RES_3_SA" 
New "Load.BT_6437_M2" bus1="UC12439.3.4" phases=1 conn=delta model=3 kv=0.22 kw = 195.6528717322745 pf=0.92 status=variable vmaxpu=1.5 vminpu=0.93 daily="RES_3_SA"
 
New "Load.BT_2368_M1" bus1="UC9732.1.4" phases=1 conn=delta model=2 kv=0.22 kw = 57.95354794091274 pf=0.92 status=variable vmaxpu=1.5 vminpu=0.93 daily="RES_2_SA" 
New "Load.BT_2368_M2" bus1="UC9732.1.4" phases=1 conn=delta model=3 kv=0.22 kw = 57.95354794091274 pf=0.92 status=variable vmaxpu=1.5 vminpu=0.93 daily="RES_2_SA"
 
New "Load.BT_491_M1" bus1="UC1855.1.4" phases=1 conn=delta model=2 kv=0.22 kw = 476.5069497363937 pf=0.92 status=variable vmaxpu=1.5 vminpu=0.93 daily="RES_2_SA" 
New "Load.BT_491_M2" bus1="UC1855.1.4" phases=1 conn=delta model=3 kv=0.22 kw = 476.5069497363937 pf=0.92 status=variable vmaxpu=1.5 vminpu=0.93 daily="RES_2_SA"
 
New "Load.BT_1491_M1" bus1="UC1136.2.4" phases=1 conn=delta model=2 kv=0.22 kw = 461.65185545722613 pf=0.92 status=variable vmaxpu=1.5 vminpu=0.93 daily="RES_7_SA" 
New "Load.BT_1491_M2" bus1="UC1136.2.4" phases=1 conn=delta model=3 kv=0.22 kw = 461.65185545722613 pf=0.92 status=variable vmaxpu=1.5 vminpu=0.93 daily="RES_7_SA"
 
New "Load.BT_2368_M1" bus1="UC9732.2.4" phases=1 conn=delta model=2 kv=0.22 kw = 206.0318977586639 pf=0.92 status=variable vmaxpu=1.5 vminpu=0.93 daily="RES_9_SA" 
New "Load.BT_2368_M2" bus1="UC9732.2.4" phases=1 conn=delta model=3 kv=0.22 kw = 206.0318977586639 pf=0.92 status=variable vmaxpu=1.5 vminpu=0.93 daily="RES_9_SA"
 
New "Load.BT_8141_M1" bus1="UC15851.3.4" phases=1 conn=delta model=2 kv=0.22 kw = 407.8671732680347 pf=0.92 status=variable vmaxpu=1.5 vminpu=0.93 daily="RES_7_SA" 
New "Load.BT_8141_M2" bus1="UC15851.3.4" phases=1 conn=delta model=3 kv=0.22 kw = 407.8671732680347 pf=0.92 status=variable vmaxpu=1.5 vminpu=0.93 daily="RES_7_SA"
 
New "Load.BT_7354_M1" bus1="UC15850.3.1.4" phases=2 conn=delta model=2 kv=0.38 kw = 33.85823474099661 pf=0.92 status=variable vmaxpu=1.5 vminpu=0.93 daily="RES_1_SA" 
New "Load.BT_7354_M2" bus1="UC15850.3.1.4" phases=2 conn=delta model=3 kv=0.38 kw = 33.85823474099661 pf=0.92 status=variable vmaxpu=1.5 vminpu=0.93 daily="RES_1_SA"
 
New "Load.BT_918_M1" bus1="UC15688.1.4" phases=1 conn=delta model=2 kv=0.22 kw = 7.246402656750908 pf=0.92 status=variable vmaxpu=1.5 vminpu=0.93 daily="RES_3_SA" 
New "Load.BT_918_M2" bus1="UC15688.1.4" phases=1 conn=delta model=3 kv=0.22 kw = 7.246402656750908 pf=0.92 status=variable vmaxpu=1.5 vminpu=0.93 daily="RES_3_SA"
 
New "Load.BT_2932_M1" bus1="UC10153.2.4" phases=1 conn=delta model=2 kv=0.22 kw = 0.0 pf=0.92 status=variable vmaxpu=1.5 vminpu=0.93 daily="RES_3_SA" 
New "Load.BT_2932_M2" bus1="UC10153.2.4" phases=1 conn=delta model=3 kv=0.22 kw = 0.0 pf=0.92 status=variable vmaxpu=1.5 vminpu=0.93 daily="RES_3_SA"
 
New "Load.BT_6949_M1" bus1="UC15497.1.4" phases=1 conn=delta model=2 kv=0.22 kw = 814.5693127250514 pf=0.92 status=variable vmaxpu=1.5 vminpu=0.93 daily="RES_2_SA" 
New "Load.BT_6949_M2" bus1="UC15497.1.4" phases=1 conn=delta model=3 kv=0.22 kw = 814.5693127250514 pf=0.92 status=variable vmaxpu=1.5 vminpu=0.93 daily="RES_2_SA"
 
New "Load.BT_6949_M1" bus1="UC15497.3.4" phases=1 conn=delta model=2 kv=0.22 kw = 67.61247259773154 pf=0.92 status=variable vmaxpu=1.5 vminpu=0.93 daily="RES_2_SA" 
New "Load.BT_6949_M2" bus1="UC15497.3.4" phases=1 conn=delta model=3 kv=0.22 kw = 67.61247259773154 pf=0.92 status=variable vmaxpu=1.5 vminpu=0.93 daily="RES_2_SA"
 
New "Load.BT_1531_M1" bus1="UC5544.2.4" phases=1 conn=delta model=2 kv=0.22 kw = 540.8997807818523 pf=0.92 status=variable vmaxpu=1.5 vminpu=0.93 daily="RES_2_SA" 
New "Load.BT_1531_M2" bus1="UC5544.2.4" phases=1 conn=delta model=3 kv=0.22 kw = 540.8997807818523 pf=0.92 status=variable vmaxpu=1.5 vminpu=0.93 daily="RES_2_SA"
 
New "Load.BT_293_M1" bus1="UC15499.3.4" phases=1 conn=delta model=2 kv=0.22 kw = 354.1605707500223 pf=0.92 status=variable vmaxpu=1.5 vminpu=0.93 daily="RES_2_SA" 
New "Load.BT_293_M2" bus1="UC15499.3.4" phases=1 conn=delta model=3 kv=0.22 kw = 354.1605707500223 pf=0.92 status=variable vmaxpu=1.5 vminpu=0.93 daily="RES_2_SA"
 
New "Load.BT_1432_M1" bus1="UC8603.1.2.3.4" phases=3 conn=delta model=2 kv=0.38 kw = 1607.965466418662 pf=0.92 status=variable vmaxpu=1.5 vminpu=0.93 daily="COM_1_SA" 
New "Load.BT_1432_M2" bus1="UC8603.1.2.3.4" phases=3 conn=delta model=3 kv=0.38 kw = 1607.965466418662 pf=0.92 status=variable vmaxpu=1.5 vminpu=0.93 daily="COM_1_SA"
 
New "Load.BT_8049_M1" bus1="UC15509.1.2.4" phases=2 conn=delta model=2 kv=0.38 kw = 28.97677397045637 pf=0.92 status=variable vmaxpu=1.5 vminpu=0.93 daily="RES_2_SA" 
New "Load.BT_8049_M2" bus1="UC15509.1.2.4" phases=2 conn=delta model=3 kv=0.38 kw = 28.97677397045637 pf=0.92 status=variable vmaxpu=1.5 vminpu=0.93 daily="RES_2_SA"
 
New "Load.BT_2623_M1" bus1="UC15510.1.2.3.4" phases=3 conn=delta model=2 kv=0.38 kw = 733.2322526869099 pf=0.92 status=variable vmaxpu=1.5 vminpu=0.93 daily="COM_1_SA" 
New "Load.BT_2623_M2" bus1="UC15510.1.2.3.4" phases=3 conn=delta model=3 kv=0.38 kw = 733.2322526869099 pf=0.92 status=variable vmaxpu=1.5 vminpu=0.93 daily="COM_1_SA"
 
New "Load.BT_3013_M1" bus1="UC6671.1.4" phases=1 conn=delta model=2 kv=0.22 kw = 189.95885158410292 pf=0.92 status=variable vmaxpu=1.5 vminpu=0.93 daily="RES_2_SA" 
New "Load.BT_3013_M2" bus1="UC6671.1.4" phases=1 conn=delta model=3 kv=0.22 kw = 189.95885158410292 pf=0.92 status=variable vmaxpu=1.5 vminpu=0.93 daily="RES_2_SA"
 
New "Load.BT_6930_M1" bus1="UC9626.3.4" phases=1 conn=delta model=2 kv=0.22 kw = 550.5587054386712 pf=0.92 status=variable vmaxpu=1.5 vminpu=0.93 daily="RES_2_SA" 
New "Load.BT_6930_M2" bus1="UC9626.3.4" phases=1 conn=delta model=3 kv=0.22 kw = 550.5587054386712 pf=0.92 status=variable vmaxpu=1.5 vminpu=0.93 daily="RES_2_SA"
 
New "Load.BT_2941_M1" bus1="UC13002.3.4" phases=1 conn=delta model=2 kv=0.22 kw = 51.454894925397184 pf=0.92 status=variable vmaxpu=1.5 vminpu=0.93 daily="COM_1_SA" 
New "Load.BT_2941_M2" bus1="UC13002.3.4" phases=1 conn=delta model=3 kv=0.22 kw = 51.454894925397184 pf=0.92 status=variable vmaxpu=1.5 vminpu=0.93 daily="COM_1_SA"
 
New "Load.BT_7308_M1" bus1="UC13331.1.4" phases=1 conn=delta model=2 kv=0.22 kw = 3.2196415522729303 pf=0.92 status=variable vmaxpu=1.5 vminpu=0.93 daily="RES_2_SA" 
New "Load.BT_7308_M2" bus1="UC13331.1.4" phases=1 conn=delta model=3 kv=0.22 kw = 3.2196415522729303 pf=0.92 status=variable vmaxpu=1.5 vminpu=0.93 daily="RES_2_SA"
 
New "Load.BT_3010_M1" bus1="UC14890.1.2.3.4" phases=3 conn=delta model=2 kv=0.38 kw = 305.8659474659284 pf=0.92 status=variable vmaxpu=1.5 vminpu=0.93 daily="RES_2_SA" 
New "Load.BT_3010_M2" bus1="UC14890.1.2.3.4" phases=3 conn=delta model=3 kv=0.38 kw = 305.8659474659284 pf=0.92 status=variable vmaxpu=1.5 vminpu=0.93 daily="RES_2_SA"
 
New "Load.BT_3010_M1" bus1="UC14890.1.2.3.4" phases=3 conn=delta model=2 kv=0.38 kw = 360.5998538545682 pf=0.92 status=variable vmaxpu=1.5 vminpu=0.93 daily="RES_2_SA" 
New "Load.BT_3010_M2" bus1="UC14890.1.2.3.4" phases=3 conn=delta model=3 kv=0.38 kw = 360.5998538545682 pf=0.92 status=variable vmaxpu=1.5 vminpu=0.93 daily="RES_2_SA"
 
New "Load.BT_1267_M1" bus1="UC15137.1.2.3.4" phases=3 conn=delta model=2 kv=0.38 kw = 5449.394965692845 pf=0.92 status=variable vmaxpu=1.5 vminpu=0.93 daily="IND_1_SA" 
New "Load.BT_1267_M2" bus1="UC15137.1.2.3.4" phases=3 conn=delta model=3 kv=0.38 kw = 5449.394965692845 pf=0.92 status=variable vmaxpu=1.5 vminpu=0.93 daily="IND_1_SA"
 
New "Load.BT_1115_M1" bus1="UC7113.1.4" phases=1 conn=delta model=2 kv=0.22 kw = 408.8944771386621 pf=0.92 status=variable vmaxpu=1.5 vminpu=0.93 daily="RES_2_SA" 
New "Load.BT_1115_M2" bus1="UC7113.1.4" phases=1 conn=delta model=3 kv=0.22 kw = 408.8944771386621 pf=0.92 status=variable vmaxpu=1.5 vminpu=0.93 daily="RES_2_SA"
 
New "Load.BT_7226_M1" bus1="UC9718.1.4" phases=1 conn=delta model=2 kv=0.22 kw = 154.54279450910064 pf=0.92 status=variable vmaxpu=1.5 vminpu=0.93 daily="RES_2_SA" 
New "Load.BT_7226_M2" bus1="UC9718.1.4" phases=1 conn=delta model=3 kv=0.22 kw = 154.54279450910064 pf=0.92 status=variable vmaxpu=1.5 vminpu=0.93 daily="RES_2_SA"
 
New "Load.BT_7764_M1" bus1="UC10594.3.1.4" phases=2 conn=delta model=2 kv=0.38 kw = 241.25473947758172 pf=0.92 status=variable vmaxpu=1.5 vminpu=0.93 daily="RES_11_SA" 
New "Load.BT_7764_M2" bus1="UC10594.3.1.4" phases=2 conn=delta model=3 kv=0.38 kw = 241.25473947758172 pf=0.92 status=variable vmaxpu=1.5 vminpu=0.93 daily="RES_11_SA"
 
New "Load.BT_1983_M1" bus1="UC15149.1.2.4" phases=2 conn=delta model=2 kv=0.38 kw = 321.964155227293 pf=0.92 status=variable vmaxpu=1.5 vminpu=0.93 daily="RES_2_SA" 
New "Load.BT_1983_M2" bus1="UC15149.1.2.4" phases=2 conn=delta model=3 kv=0.38 kw = 321.964155227293 pf=0.92 status=variable vmaxpu=1.5 vminpu=0.93 daily="RES_2_SA"
 
New "Load.BT_6423_M1" bus1="UC13667.1.2.3.4" phases=3 conn=delta model=2 kv=0.38 kw = 833.6625739324666 pf=0.92 status=variable vmaxpu=1.5 vminpu=0.93 daily="RES_7_SA" 
New "Load.BT_6423_M2" bus1="UC13667.1.2.3.4" phases=3 conn=delta model=3 kv=0.38 kw = 833.6625739324666 pf=0.92 status=variable vmaxpu=1.5 vminpu=0.93 daily="RES_7_SA"
 
New "Load.BT_6614_M1" bus1="UC15154.3.4" phases=1 conn=delta model=2 kv=0.22 kw = 2055.1948487784944 pf=0.92 status=variable vmaxpu=1.5 vminpu=0.93 daily="RES_1_SA" 
New "Load.BT_6614_M2" bus1="UC15154.3.4" phases=1 conn=delta model=3 kv=0.22 kw = 2055.1948487784944 pf=0.92 status=variable vmaxpu=1.5 vminpu=0.93 daily="RES_1_SA"
 
New "Load.BT_8374_M1" bus1="UC15150.1.2.3.4" phases=3 conn=delta model=2 kv=0.38 kw = 627.8301026932214 pf=0.92 status=variable vmaxpu=1.5 vminpu=0.93 daily="RES_2_SA" 
New "Load.BT_8374_M2" bus1="UC15150.1.2.3.4" phases=3 conn=delta model=3 kv=0.38 kw = 627.8301026932214 pf=0.92 status=variable vmaxpu=1.5 vminpu=0.93 daily="RES_2_SA"
 
New "Load.BT_3034_M1" bus1="UC14783.1.2.3.4" phases=3 conn=delta model=2 kv=0.38 kw = 267.2302488386532 pf=0.92 status=variable vmaxpu=1.5 vminpu=0.93 daily="RES_2_SA" 
New "Load.BT_3034_M2" bus1="UC14783.1.2.3.4" phases=3 conn=delta model=3 kv=0.38 kw = 267.2302488386532 pf=0.92 status=variable vmaxpu=1.5 vminpu=0.93 daily="RES_2_SA"
 
New "Load.BT_1488_M1" bus1="UC10551.2.4" phases=1 conn=delta model=2 kv=0.22 kw = 600.9030085136064 pf=0.92 status=variable vmaxpu=1.5 vminpu=0.93 daily="RES_11_SA" 
New "Load.BT_1488_M2" bus1="UC10551.2.4" phases=1 conn=delta model=3 kv=0.22 kw = 600.9030085136064 pf=0.92 status=variable vmaxpu=1.5 vminpu=0.93 daily="RES_11_SA"
 
New "Load.BT_927_M1" bus1="UC15130.3.4" phases=1 conn=delta model=2 kv=0.22 kw = 35.375240261210564 pf=0.92 status=variable vmaxpu=1.5 vminpu=0.93 daily="COM_1_SA" 
New "Load.BT_927_M2" bus1="UC15130.3.4" phases=1 conn=delta model=3 kv=0.22 kw = 35.375240261210564 pf=0.92 status=variable vmaxpu=1.5 vminpu=0.93 daily="COM_1_SA"
 
New "Load.BT_15_M1" bus1="UC11345.3.4" phases=1 conn=delta model=2 kv=0.22 kw = 607.6054849023403 pf=0.92 status=variable vmaxpu=1.5 vminpu=0.93 daily="RES_8_SA" 
New "Load.BT_15_M2" bus1="UC11345.3.4" phases=1 conn=delta model=3 kv=0.22 kw = 607.6054849023403 pf=0.92 status=variable vmaxpu=1.5 vminpu=0.93 daily="RES_8_SA"
 
New "Load.BT_6637_M1" bus1="UC1871.2.4" phases=1 conn=delta model=2 kv=0.22 kw = 759.7666079218475 pf=0.92 status=variable vmaxpu=1.5 vminpu=0.93 daily="RES_13_SA" 
New "Load.BT_6637_M2" bus1="UC1871.2.4" phases=1 conn=delta model=3 kv=0.22 kw = 759.7666079218475 pf=0.92 status=variable vmaxpu=1.5 vminpu=0.93 daily="RES_13_SA"
 
New "Load.BT_387_M1" bus1="UC15581.1.2.3.4" phases=3 conn=delta model=2 kv=0.38 kw = 0.0 pf=0.92 status=variable vmaxpu=1.5 vminpu=0.93 daily="RES_3_SA" 
New "Load.BT_387_M2" bus1="UC15581.1.2.3.4" phases=3 conn=delta model=3 kv=0.38 kw = 0.0 pf=0.92 status=variable vmaxpu=1.5 vminpu=0.93 daily="RES_3_SA"
 
New "Load.BT_8263_M1" bus1="UC14653.1.2.3.4" phases=3 conn=delta model=2 kv=0.38 kw = 0.0 pf=0.92 status=variable vmaxpu=1.5 vminpu=0.93 daily="RES_3_SA" 
New "Load.BT_8263_M2" bus1="UC14653.1.2.3.4" phases=3 conn=delta model=3 kv=0.38 kw = 0.0 pf=0.92 status=variable vmaxpu=1.5 vminpu=0.93 daily="RES_3_SA"
 
New "Load.BT_1454_M1" bus1="UC8216.3.4" phases=1 conn=delta model=2 kv=0.22 kw = 0.0 pf=0.92 status=variable vmaxpu=1.5 vminpu=0.93 daily="RES_3_SA" 
New "Load.BT_1454_M2" bus1="UC8216.3.4" phases=1 conn=delta model=3 kv=0.22 kw = 0.0 pf=0.92 status=variable vmaxpu=1.5 vminpu=0.93 daily="RES_3_SA"
 
New "Load.BT_1314_M1" bus1="UC16125.1.2.3.4" phases=3 conn=delta model=2 kv=0.38 kw = 0.0 pf=0.92 status=variable vmaxpu=1.5 vminpu=0.93 daily="RES_7_SA" 
New "Load.BT_1314_M2" bus1="UC16125.1.2.3.4" phases=3 conn=delta model=3 kv=0.38 kw = 0.0 pf=0.92 status=variable vmaxpu=1.5 vminpu=0.93 daily="RES_7_SA"
 
New "Load.BT_8044_M1" bus1="UC16120.1.2.3.4" phases=3 conn=delta model=2 kv=0.38 kw = 0.0 pf=0.92 status=variable vmaxpu=1.5 vminpu=0.93 daily="RES_3_SA" 
New "Load.BT_8044_M2" bus1="UC16120.1.2.3.4" phases=3 conn=delta model=3 kv=0.38 kw = 0.0 pf=0.92 status=variable vmaxpu=1.5 vminpu=0.93 daily="RES_3_SA"
 
New "Load.BT_6919_M1" bus1="UC16117.1.4" phases=1 conn=delta model=2 kv=0.22 kw = 0.0 pf=0.92 status=variable vmaxpu=1.5 vminpu=0.93 daily="RES_3_SA" 
New "Load.BT_6919_M2" bus1="UC16117.1.4" phases=1 conn=delta model=3 kv=0.22 kw = 0.0 pf=0.92 status=variable vmaxpu=1.5 vminpu=0.93 daily="RES_3_SA"
 
New "Load.BT_1445_M1" bus1="UC2901.2.4" phases=1 conn=delta model=2 kv=0.22 kw = 0.0 pf=0.92 status=variable vmaxpu=1.5 vminpu=0.93 daily="RES_3_SA" 
New "Load.BT_1445_M2" bus1="UC2901.2.4" phases=1 conn=delta model=3 kv=0.22 kw = 0.0 pf=0.92 status=variable vmaxpu=1.5 vminpu=0.93 daily="RES_3_SA"
 
New "Load.BT_3107_M1" bus1="UC8431.2.4" phases=1 conn=delta model=2 kv=0.22 kw = 0.0 pf=0.92 status=variable vmaxpu=1.5 vminpu=0.93 daily="RES_3_SA" 
New "Load.BT_3107_M2" bus1="UC8431.2.4" phases=1 conn=delta model=3 kv=0.22 kw = 0.0 pf=0.92 status=variable vmaxpu=1.5 vminpu=0.93 daily="RES_3_SA"
 
New "Load.BT_8422_M1" bus1="UC16128.1.4" phases=1 conn=delta model=2 kv=0.22 kw = 0.0 pf=0.92 status=variable vmaxpu=1.5 vminpu=0.93 daily="RES_7_SA" 
New "Load.BT_8422_M2" bus1="UC16128.1.4" phases=1 conn=delta model=3 kv=0.22 kw = 0.0 pf=0.92 status=variable vmaxpu=1.5 vminpu=0.93 daily="RES_7_SA"
 
New "Load.BT_8514_M1" bus1="UC15685.1.2.3.4" phases=3 conn=delta model=2 kv=0.38 kw = 284.60988755610316 pf=0.92 status=variable vmaxpu=1.5 vminpu=0.93 daily="COM_1_SA" 
New "Load.BT_8514_M2" bus1="UC15685.1.2.3.4" phases=3 conn=delta model=3 kv=0.38 kw = 284.60988755610316 pf=0.92 status=variable vmaxpu=1.5 vminpu=0.93 daily="COM_1_SA"
 
New "Load.BT_2932_M1" bus1="UC10153.2.4" phases=1 conn=delta model=2 kv=0.22 kw = 515.1426483636689 pf=0.92 status=variable vmaxpu=1.5 vminpu=0.93 daily="RES_2_SA" 
New "Load.BT_2932_M2" bus1="UC10153.2.4" phases=1 conn=delta model=3 kv=0.22 kw = 515.1426483636689 pf=0.92 status=variable vmaxpu=1.5 vminpu=0.93 daily="RES_2_SA"
 
New "Load.BT_7928_M1" bus1="UC15838.2.4" phases=1 conn=delta model=2 kv=0.22 kw = 3.2196415522729303 pf=0.92 status=variable vmaxpu=1.5 vminpu=0.93 daily="RES_2_SA" 
New "Load.BT_7928_M2" bus1="UC15838.2.4" phases=1 conn=delta model=3 kv=0.22 kw = 3.2196415522729303 pf=0.92 status=variable vmaxpu=1.5 vminpu=0.93 daily="RES_2_SA"
 
New "Load.BT_7378_M1" bus1="UC15839.2.3.4" phases=2 conn=delta model=2 kv=0.38 kw = 0.0 pf=0.92 status=variable vmaxpu=1.5 vminpu=0.93 daily="RES_9_SA" 
New "Load.BT_7378_M2" bus1="UC15839.2.3.4" phases=2 conn=delta model=3 kv=0.38 kw = 0.0 pf=0.92 status=variable vmaxpu=1.5 vminpu=0.93 daily="RES_9_SA"
 
New "Load.BT_2395_M1" bus1="UC14029.1.4" phases=1 conn=delta model=2 kv=0.22 kw = 457.1891004227561 pf=0.92 status=variable vmaxpu=1.5 vminpu=0.93 daily="RES_2_SA" 
New "Load.BT_2395_M2" bus1="UC14029.1.4" phases=1 conn=delta model=3 kv=0.22 kw = 457.1891004227561 pf=0.92 status=variable vmaxpu=1.5 vminpu=0.93 daily="RES_2_SA"
 
New "Load.BT_8159_M1" bus1="UC15841.2.4" phases=1 conn=delta model=2 kv=0.22 kw = 17.96192449256344 pf=0.92 status=variable vmaxpu=1.5 vminpu=0.93 daily="RES_4_SA" 
New "Load.BT_8159_M2" bus1="UC15841.2.4" phases=1 conn=delta model=3 kv=0.22 kw = 17.96192449256344 pf=0.92 status=variable vmaxpu=1.5 vminpu=0.93 daily="RES_4_SA"
 
New "Load.BT_1678_M1" bus1="UC358.3.1.4" phases=2 conn=delta model=2 kv=0.38 kw = 861.869490000403 pf=0.92 status=variable vmaxpu=1.5 vminpu=0.93 daily="COM_1_SA" 
New "Load.BT_1678_M2" bus1="UC358.3.1.4" phases=2 conn=delta model=3 kv=0.38 kw = 861.869490000403 pf=0.92 status=variable vmaxpu=1.5 vminpu=0.93 daily="COM_1_SA"
 
New "Load.BT_474_M1" bus1="UC6892.2.4" phases=1 conn=delta model=2 kv=0.22 kw = 231.81419176365097 pf=0.92 status=variable vmaxpu=1.5 vminpu=0.93 daily="RES_2_SA" 
New "Load.BT_474_M2" bus1="UC6892.2.4" phases=1 conn=delta model=3 kv=0.22 kw = 231.81419176365097 pf=0.92 status=variable vmaxpu=1.5 vminpu=0.93 daily="RES_2_SA"
 
New "Load.BT_3034_M1" bus1="UC14783.1.2.3.4" phases=3 conn=delta model=2 kv=0.38 kw = 141.66422830000894 pf=0.92 status=variable vmaxpu=1.5 vminpu=0.93 daily="RES_2_SA" 
New "Load.BT_3034_M2" bus1="UC14783.1.2.3.4" phases=3 conn=delta model=3 kv=0.38 kw = 141.66422830000894 pf=0.92 status=variable vmaxpu=1.5 vminpu=0.93 daily="RES_2_SA"
 
New "Load.BT_7427_M1" bus1="UC15490.2.4" phases=1 conn=delta model=2 kv=0.22 kw = 592.4140456182192 pf=0.92 status=variable vmaxpu=1.5 vminpu=0.93 daily="RES_2_SA" 
New "Load.BT_7427_M2" bus1="UC15490.2.4" phases=1 conn=delta model=3 kv=0.22 kw = 592.4140456182192 pf=0.92 status=variable vmaxpu=1.5 vminpu=0.93 daily="RES_2_SA"
 
New "Load.BT_6397_M1" bus1="UC15492.1.2.3.4" phases=3 conn=delta model=2 kv=0.38 kw = 86.93032191136912 pf=0.92 status=variable vmaxpu=1.5 vminpu=0.93 daily="RES_2_SA" 
New "Load.BT_6397_M2" bus1="UC15492.1.2.3.4" phases=3 conn=delta model=3 kv=0.38 kw = 86.93032191136912 pf=0.92 status=variable vmaxpu=1.5 vminpu=0.93 daily="RES_2_SA"
 
New "Load.BT_855_M1" bus1="UC15495.1.2.3.4" phases=3 conn=delta model=2 kv=0.38 kw = 254.0585436941486 pf=0.92 status=variable vmaxpu=1.5 vminpu=0.93 daily="COM_1_SA" 
New "Load.BT_855_M2" bus1="UC15495.1.2.3.4" phases=3 conn=delta model=3 kv=0.38 kw = 254.0585436941486 pf=0.92 status=variable vmaxpu=1.5 vminpu=0.93 daily="COM_1_SA"
 
New "Load.BT_937_M1" bus1="UC15493.2.4" phases=1 conn=delta model=2 kv=0.22 kw = 331.6230798841118 pf=0.92 status=variable vmaxpu=1.5 vminpu=0.93 daily="RES_2_SA" 
New "Load.BT_937_M2" bus1="UC15493.2.4" phases=1 conn=delta model=3 kv=0.22 kw = 331.6230798841118 pf=0.92 status=variable vmaxpu=1.5 vminpu=0.93 daily="RES_2_SA"
 
New "Load.BT_7261_M1" bus1="UC15496.3.4" phases=1 conn=delta model=2 kv=0.38 kw = 35.416057075002236 pf=0.92 status=variable vmaxpu=1.5 vminpu=0.93 daily="RES_2_SA" 
New "Load.BT_7261_M2" bus1="UC15496.3.4" phases=1 conn=delta model=3 kv=0.38 kw = 35.416057075002236 pf=0.92 status=variable vmaxpu=1.5 vminpu=0.93 daily="RES_2_SA"
 
New "Load.BT_358_M1" bus1="UC14400.1.4" phases=1 conn=delta model=2 kv=0.22 kw = 241.47311642046978 pf=0.92 status=variable vmaxpu=1.5 vminpu=0.93 daily="RES_2_SA" 
New "Load.BT_358_M2" bus1="UC14400.1.4" phases=1 conn=delta model=3 kv=0.22 kw = 241.47311642046978 pf=0.92 status=variable vmaxpu=1.5 vminpu=0.93 daily="RES_2_SA"
 
New "Load.BT_490_M1" bus1="UC6077.1.4" phases=1 conn=delta model=2 kv=0.22 kw = 280.10881504774494 pf=0.92 status=variable vmaxpu=1.5 vminpu=0.93 daily="RES_2_SA" 
New "Load.BT_490_M2" bus1="UC6077.1.4" phases=1 conn=delta model=3 kv=0.22 kw = 280.10881504774494 pf=0.92 status=variable vmaxpu=1.5 vminpu=0.93 daily="RES_2_SA"
 
New "Load.BT_1862_M1" bus1="UC7595.2.3.4" phases=2 conn=delta model=2 kv=0.38 kw = 1003.9807341982392 pf=0.92 status=variable vmaxpu=1.5 vminpu=0.93 daily="RES_7_SA" 
New "Load.BT_1862_M2" bus1="UC7595.2.3.4" phases=2 conn=delta model=3 kv=0.38 kw = 1003.9807341982392 pf=0.92 status=variable vmaxpu=1.5 vminpu=0.93 daily="RES_7_SA"
 
New "Load.BT_1488_M1" bus1="UC10551.3.4" phases=1 conn=delta model=2 kv=0.22 kw = 319.439145789761 pf=0.92 status=variable vmaxpu=1.5 vminpu=0.93 daily="RES_11_SA" 
New "Load.BT_1488_M2" bus1="UC10551.3.4" phases=1 conn=delta model=3 kv=0.22 kw = 319.439145789761 pf=0.92 status=variable vmaxpu=1.5 vminpu=0.93 daily="RES_11_SA"
 
New "Load.BT_2624_M1" bus1="UC8865.3.4" phases=1 conn=delta model=2 kv=0.22 kw = 1482.1062893450817 pf=0.92 status=variable vmaxpu=1.5 vminpu=0.93 daily="RES_13_SA" 
New "Load.BT_2624_M2" bus1="UC8865.3.4" phases=1 conn=delta model=3 kv=0.22 kw = 1482.1062893450817 pf=0.92 status=variable vmaxpu=1.5 vminpu=0.93 daily="RES_13_SA"
 
New "Load.BT_1840_M1" bus1="UC5847.2.4" phases=1 conn=delta model=2 kv=0.22 kw = 389.5766278250246 pf=0.92 status=variable vmaxpu=1.5 vminpu=0.93 daily="RES_2_SA" 
New "Load.BT_1840_M2" bus1="UC5847.2.4" phases=1 conn=delta model=3 kv=0.22 kw = 389.5766278250246 pf=0.92 status=variable vmaxpu=1.5 vminpu=0.93 daily="RES_2_SA"
 
New "Load.BT_1452_M1" bus1="UC8287.2.4" phases=1 conn=delta model=2 kv=0.22 kw = 590.123326175649 pf=0.92 status=variable vmaxpu=1.5 vminpu=0.93 daily="COM_1_SA" 
New "Load.BT_1452_M2" bus1="UC8287.2.4" phases=1 conn=delta model=3 kv=0.22 kw = 590.123326175649 pf=0.92 status=variable vmaxpu=1.5 vminpu=0.93 daily="COM_1_SA"
 
New "Load.BT_3034_M1" bus1="UC14783.1.2.3.4" phases=3 conn=delta model=2 kv=0.38 kw = 280.10881504774494 pf=0.92 status=variable vmaxpu=1.5 vminpu=0.93 daily="RES_2_SA" 
New "Load.BT_3034_M2" bus1="UC14783.1.2.3.4" phases=3 conn=delta model=3 kv=0.38 kw = 280.10881504774494 pf=0.92 status=variable vmaxpu=1.5 vminpu=0.93 daily="RES_2_SA"
 
New "Load.BT_929_M1" bus1="UC8105.2.4" phases=1 conn=delta model=2 kv=0.22 kw = 106.12572078363169 pf=0.92 status=variable vmaxpu=1.5 vminpu=0.93 daily="COM_1_SA" 
New "Load.BT_929_M2" bus1="UC8105.2.4" phases=1 conn=delta model=3 kv=0.22 kw = 106.12572078363169 pf=0.92 status=variable vmaxpu=1.5 vminpu=0.93 daily="COM_1_SA"
 
New "Load.BT_3034_M1" bus1="UC14783.1.2.3.4" phases=3 conn=delta model=2 kv=0.38 kw = 1023.8296960761162 pf=0.92 status=variable vmaxpu=1.5 vminpu=0.93 daily="RES_4_SA" 
New "Load.BT_3034_M2" bus1="UC14783.1.2.3.4" phases=3 conn=delta model=3 kv=0.38 kw = 1023.8296960761162 pf=0.92 status=variable vmaxpu=1.5 vminpu=0.93 daily="RES_4_SA"
 
New "Load.BT_8197_M1" bus1="UC11184.3.4" phases=1 conn=delta model=2 kv=0.22 kw = 299.33458416662916 pf=0.92 status=variable vmaxpu=1.5 vminpu=0.93 daily="RES_11_SA" 
New "Load.BT_8197_M2" bus1="UC11184.3.4" phases=1 conn=delta model=3 kv=0.22 kw = 299.33458416662916 pf=0.92 status=variable vmaxpu=1.5 vminpu=0.93 daily="RES_11_SA"
 
New "Load.BT_3010_M1" bus1="UC14890.1.2.3.4" phases=3 conn=delta model=2 kv=0.38 kw = 376.49277532433973 pf=0.92 status=variable vmaxpu=1.5 vminpu=0.93 daily="RES_7_SA" 
New "Load.BT_3010_M2" bus1="UC14890.1.2.3.4" phases=3 conn=delta model=3 kv=0.38 kw = 376.49277532433973 pf=0.92 status=variable vmaxpu=1.5 vminpu=0.93 daily="RES_7_SA"
 
New "Load.BT_377_M1" bus1="UC15109.1.4" phases=1 conn=delta model=2 kv=0.22 kw = 646.6922835530353 pf=0.92 status=variable vmaxpu=1.5 vminpu=0.93 daily="RES_1_SA" 
New "Load.BT_377_M2" bus1="UC15109.1.4" phases=1 conn=delta model=3 kv=0.22 kw = 646.6922835530353 pf=0.92 status=variable vmaxpu=1.5 vminpu=0.93 daily="RES_1_SA"
 
New "Load.BT_1750_M1" bus1="UC10549.2.4" phases=1 conn=delta model=2 kv=0.22 kw = 11.255758264930634 pf=0.92 status=variable vmaxpu=1.5 vminpu=0.93 daily="COM_1_SA" 
New "Load.BT_1750_M2" bus1="UC10549.2.4" phases=1 conn=delta model=3 kv=0.22 kw = 11.255758264930634 pf=0.92 status=variable vmaxpu=1.5 vminpu=0.93 daily="COM_1_SA"
 
New "Load.BT_639_M1" bus1="UC15090.3.4" phases=1 conn=delta model=2 kv=0.22 kw = 0.0 pf=0.92 status=variable vmaxpu=1.5 vminpu=0.93 daily="RES_3_SA" 
New "Load.BT_639_M2" bus1="UC15090.3.4" phases=1 conn=delta model=3 kv=0.22 kw = 0.0 pf=0.92 status=variable vmaxpu=1.5 vminpu=0.93 daily="RES_3_SA"
 
New "Load.BT_2214_M1" bus1="UC11074.2.4" phases=1 conn=delta model=2 kv=0.22 kw = 0.0 pf=0.92 status=variable vmaxpu=1.5 vminpu=0.93 daily="RES_3_SA" 
New "Load.BT_2214_M2" bus1="UC11074.2.4" phases=1 conn=delta model=3 kv=0.22 kw = 0.0 pf=0.92 status=variable vmaxpu=1.5 vminpu=0.93 daily="RES_3_SA"
 
New "Load.BT_8198_M1" bus1="UC15673.2.3.4" phases=2 conn=delta model=2 kv=0.38 kw = 0.0 pf=0.92 status=variable vmaxpu=1.5 vminpu=0.93 daily="RES_3_SA" 
New "Load.BT_8198_M2" bus1="UC15673.2.3.4" phases=2 conn=delta model=3 kv=0.38 kw = 0.0 pf=0.92 status=variable vmaxpu=1.5 vminpu=0.93 daily="RES_3_SA"
 
New "Load.BT_6795_M1" bus1="UC14821.3.4" phases=1 conn=delta model=2 kv=0.22 kw = 0.0 pf=0.92 status=variable vmaxpu=1.5 vminpu=0.93 daily="RES_3_SA" 
New "Load.BT_6795_M2" bus1="UC14821.3.4" phases=1 conn=delta model=3 kv=0.22 kw = 0.0 pf=0.92 status=variable vmaxpu=1.5 vminpu=0.93 daily="RES_3_SA"
 
New "Load.BT_768_M1" bus1="UC12804.1.4" phases=1 conn=delta model=2 kv=0.22 kw = 0.0 pf=0.92 status=variable vmaxpu=1.5 vminpu=0.93 daily="RES_3_SA" 
New "Load.BT_768_M2" bus1="UC12804.1.4" phases=1 conn=delta model=3 kv=0.22 kw = 0.0 pf=0.92 status=variable vmaxpu=1.5 vminpu=0.93 daily="RES_3_SA"
 
New "Load.BT_539_M1" bus1="UC11814.2.4" phases=1 conn=delta model=2 kv=0.22 kw = 769.0289375662476 pf=0.92 status=variable vmaxpu=1.5 vminpu=0.93 daily="RES_6_SA" 
New "Load.BT_539_M2" bus1="UC11814.2.4" phases=1 conn=delta model=3 kv=0.22 kw = 769.0289375662476 pf=0.92 status=variable vmaxpu=1.5 vminpu=0.93 daily="RES_6_SA"
 
New "Load.BT_6846_M1" bus1="UC15821.1.2.3.4" phases=3 conn=delta model=2 kv=0.38 kw = 57.95354794091274 pf=0.92 status=variable vmaxpu=1.5 vminpu=0.93 daily="RES_2_SA" 
New "Load.BT_6846_M2" bus1="UC15821.1.2.3.4" phases=3 conn=delta model=3 kv=0.38 kw = 57.95354794091274 pf=0.92 status=variable vmaxpu=1.5 vminpu=0.93 daily="RES_2_SA"
 
New "Load.BT_826_M1" bus1="UC7495.2.4" phases=1 conn=delta model=2 kv=0.22 kw = 684.9932886943501 pf=0.92 status=variable vmaxpu=1.5 vminpu=0.93 daily="COM_1_SA" 
New "Load.BT_826_M2" bus1="UC7495.2.4" phases=1 conn=delta model=3 kv=0.22 kw = 684.9932886943501 pf=0.92 status=variable vmaxpu=1.5 vminpu=0.93 daily="COM_1_SA"
 
New "Load.BT_84_M1" bus1="UC5102.3.4" phases=1 conn=delta model=2 kv=0.22 kw = 735.5928968024976 pf=0.92 status=variable vmaxpu=1.5 vminpu=0.93 daily="RES_6_SA" 
New "Load.BT_84_M2" bus1="UC5102.3.4" phases=1 conn=delta model=3 kv=0.22 kw = 735.5928968024976 pf=0.92 status=variable vmaxpu=1.5 vminpu=0.93 daily="RES_6_SA"
 
New "Load.BT_2347_M1" bus1="UC1753.3.4" phases=1 conn=delta model=2 kv=0.22 kw = 424.99268490002686 pf=0.92 status=variable vmaxpu=1.5 vminpu=0.93 daily="RES_2_SA" 
New "Load.BT_2347_M2" bus1="UC1753.3.4" phases=1 conn=delta model=3 kv=0.22 kw = 424.99268490002686 pf=0.92 status=variable vmaxpu=1.5 vminpu=0.93 daily="RES_2_SA"
 
New "Load.BT_8197_M1" bus1="UC11184.3.4" phases=1 conn=delta model=2 kv=0.22 kw = 120.97285739958248 pf=0.92 status=variable vmaxpu=1.5 vminpu=0.93 daily="RES_9_SA" 
New "Load.BT_8197_M2" bus1="UC11184.3.4" phases=1 conn=delta model=3 kv=0.22 kw = 120.97285739958248 pf=0.92 status=variable vmaxpu=1.5 vminpu=0.93 daily="RES_9_SA"
 
New "Load.BT_2623_M1" bus1="UC15510.1.2.3.4" phases=3 conn=delta model=2 kv=0.38 kw = 9.4561059821085 pf=0.92 status=variable vmaxpu=1.5 vminpu=0.93 daily="COM_12_SA" 
New "Load.BT_2623_M2" bus1="UC15510.1.2.3.4" phases=3 conn=delta model=3 kv=0.38 kw = 9.4561059821085 pf=0.92 status=variable vmaxpu=1.5 vminpu=0.93 daily="COM_12_SA"
 
New "Load.BT_8426_M1" bus1="UC15793.1.2.3.4" phases=3 conn=delta model=2 kv=0.38 kw = 102.90978985079437 pf=0.92 status=variable vmaxpu=1.5 vminpu=0.93 daily="COM_1_SA" 
New "Load.BT_8426_M2" bus1="UC15793.1.2.3.4" phases=3 conn=delta model=3 kv=0.38 kw = 102.90978985079437 pf=0.92 status=variable vmaxpu=1.5 vminpu=0.93 daily="COM_1_SA"
 
New "Load.BT_7702_M1" bus1="UC15796.3.4" phases=1 conn=delta model=2 kv=0.22 kw = 238.25347486819686 pf=0.92 status=variable vmaxpu=1.5 vminpu=0.93 daily="RES_2_SA" 
New "Load.BT_7702_M2" bus1="UC15796.3.4" phases=1 conn=delta model=3 kv=0.22 kw = 238.25347486819686 pf=0.92 status=variable vmaxpu=1.5 vminpu=0.93 daily="RES_2_SA"
 
New "Load.BT_236_M1" bus1="UC15798.1.2.3.4" phases=3 conn=delta model=2 kv=0.38 kw = 0.0 pf=0.92 status=variable vmaxpu=1.5 vminpu=0.93 daily="RES_12_SA" 
New "Load.BT_236_M2" bus1="UC15798.1.2.3.4" phases=3 conn=delta model=3 kv=0.38 kw = 0.0 pf=0.92 status=variable vmaxpu=1.5 vminpu=0.93 daily="RES_12_SA"
 
New "Load.BT_146_M1" bus1="UC10578.1.4" phases=1 conn=delta model=2 kv=0.22 kw = 636.4520725720981 pf=0.92 status=variable vmaxpu=1.5 vminpu=0.93 daily="RES_7_SA" 
New "Load.BT_146_M2" bus1="UC10578.1.4" phases=1 conn=delta model=3 kv=0.22 kw = 636.4520725720981 pf=0.92 status=variable vmaxpu=1.5 vminpu=0.93 daily="RES_7_SA"
 
New "Load.BT_3019_M1" bus1="UC9738.1.4" phases=1 conn=delta model=2 kv=0.22 kw = 150.4621834368745 pf=0.92 status=variable vmaxpu=1.5 vminpu=0.93 daily="RES_6_SA" 
New "Load.BT_3019_M2" bus1="UC9738.1.4" phases=1 conn=delta model=3 kv=0.22 kw = 150.4621834368745 pf=0.92 status=variable vmaxpu=1.5 vminpu=0.93 daily="RES_6_SA"
 
New "Load.BT_2092_M1" bus1="UC6242.2.4" phases=1 conn=delta model=2 kv=0.22 kw = 280.10881504774494 pf=0.92 status=variable vmaxpu=1.5 vminpu=0.93 daily="RES_2_SA" 
New "Load.BT_2092_M2" bus1="UC6242.2.4" phases=1 conn=delta model=3 kv=0.22 kw = 280.10881504774494 pf=0.92 status=variable vmaxpu=1.5 vminpu=0.93 daily="RES_2_SA"
 
New "Load.BT_539_M1" bus1="UC11814.2.4" phases=1 conn=delta model=2 kv=0.22 kw = 115.30225470897703 pf=0.92 status=variable vmaxpu=1.5 vminpu=0.93 daily="RES_9_SA" 
New "Load.BT_539_M2" bus1="UC11814.2.4" phases=1 conn=delta model=3 kv=0.22 kw = 115.30225470897703 pf=0.92 status=variable vmaxpu=1.5 vminpu=0.93 daily="RES_9_SA"
 
New "Load.BT_1424_M1" bus1="UC6619.3.4" phases=1 conn=delta model=2 kv=0.22 kw = 202.83741779319462 pf=0.92 status=variable vmaxpu=1.5 vminpu=0.93 daily="RES_2_SA" 
New "Load.BT_1424_M2" bus1="UC6619.3.4" phases=1 conn=delta model=3 kv=0.22 kw = 202.83741779319462 pf=0.92 status=variable vmaxpu=1.5 vminpu=0.93 daily="RES_2_SA"
 
New "Load.BT_6443_M1" bus1="UC15805.1.4" phases=1 conn=delta model=2 kv=0.22 kw = 6.4392831045458605 pf=0.92 status=variable vmaxpu=1.5 vminpu=0.93 daily="RES_2_SA" 
New "Load.BT_6443_M2" bus1="UC15805.1.4" phases=1 conn=delta model=3 kv=0.22 kw = 6.4392831045458605 pf=0.92 status=variable vmaxpu=1.5 vminpu=0.93 daily="RES_2_SA"
 
New "Load.BT_8141_M1" bus1="UC15807.1.2.3.4" phases=3 conn=delta model=2 kv=0.38 kw = 17430.345655978297 pf=0.92 status=variable vmaxpu=1.5 vminpu=0.93 daily="COM_1_SA" 
New "Load.BT_8141_M2" bus1="UC15807.1.2.3.4" phases=3 conn=delta model=3 kv=0.38 kw = 17430.345655978297 pf=0.92 status=variable vmaxpu=1.5 vminpu=0.93 daily="COM_1_SA"
 
New "Load.BT_296_M1" bus1="UC14335.2.4" phases=1 conn=delta model=2 kv=0.22 kw = 12.878566209091721 pf=0.92 status=variable vmaxpu=1.5 vminpu=0.93 daily="RES_2_SA" 
New "Load.BT_296_M2" bus1="UC14335.2.4" phases=1 conn=delta model=3 kv=0.22 kw = 12.878566209091721 pf=0.92 status=variable vmaxpu=1.5 vminpu=0.93 daily="RES_2_SA"
 
New "Load.BT_121_M1" bus1="UC12650.2.3.4" phases=2 conn=delta model=2 kv=0.38 kw = 574.0969263494306 pf=0.92 status=variable vmaxpu=1.5 vminpu=0.93 daily="RES_11_SA" 
New "Load.BT_121_M2" bus1="UC12650.2.3.4" phases=2 conn=delta model=3 kv=0.38 kw = 574.0969263494306 pf=0.92 status=variable vmaxpu=1.5 vminpu=0.93 daily="RES_11_SA"
 
New "Load.BT_12_M1" bus1="UC10383.2.4" phases=1 conn=delta model=2 kv=0.22 kw = 361.0283713018789 pf=0.92 status=variable vmaxpu=1.5 vminpu=0.93 daily="RES_9_SA" 
New "Load.BT_12_M2" bus1="UC10383.2.4" phases=1 conn=delta model=3 kv=0.22 kw = 361.0283713018789 pf=0.92 status=variable vmaxpu=1.5 vminpu=0.93 daily="RES_9_SA"
 
New "Load.BT_8263_M1" bus1="UC14653.1.2.3.4" phases=3 conn=delta model=2 kv=0.38 kw = 843.5460866955077 pf=0.92 status=variable vmaxpu=1.5 vminpu=0.93 daily="RES_2_SA" 
New "Load.BT_8263_M2" bus1="UC14653.1.2.3.4" phases=3 conn=delta model=3 kv=0.38 kw = 843.5460866955077 pf=0.92 status=variable vmaxpu=1.5 vminpu=0.93 daily="RES_2_SA"
 
New "Load.BT_2343_M1" bus1="UC5977.2.4" phases=1 conn=delta model=2 kv=0.22 kw = 189.95885158410292 pf=0.92 status=variable vmaxpu=1.5 vminpu=0.93 daily="RES_2_SA" 
New "Load.BT_2343_M2" bus1="UC5977.2.4" phases=1 conn=delta model=3 kv=0.22 kw = 189.95885158410292 pf=0.92 status=variable vmaxpu=1.5 vminpu=0.93 daily="RES_2_SA"
 
New "Load.BT_3034_M1" bus1="UC14783.1.2.3.4" phases=3 conn=delta model=2 kv=0.38 kw = 193.17849313637583 pf=0.92 status=variable vmaxpu=1.5 vminpu=0.93 daily="RES_2_SA" 
New "Load.BT_3034_M2" bus1="UC14783.1.2.3.4" phases=3 conn=delta model=3 kv=0.38 kw = 193.17849313637583 pf=0.92 status=variable vmaxpu=1.5 vminpu=0.93 daily="RES_2_SA"
 
New "Load.BT_684_M1" bus1="UC6236.1.2.3.4" phases=3 conn=delta model=2 kv=0.38 kw = 302.29750768670846 pf=0.92 status=variable vmaxpu=1.5 vminpu=0.93 daily="COM_1_SA" 
New "Load.BT_684_M2" bus1="UC6236.1.2.3.4" phases=3 conn=delta model=3 kv=0.38 kw = 302.29750768670846 pf=0.92 status=variable vmaxpu=1.5 vminpu=0.93 daily="COM_1_SA"
 
New "Load.BT_7327_M1" bus1="UC13253.1.2.4" phases=2 conn=delta model=2 kv=0.38 kw = 344.50164609320353 pf=0.92 status=variable vmaxpu=1.5 vminpu=0.93 daily="RES_2_SA" 
New "Load.BT_7327_M2" bus1="UC13253.1.2.4" phases=2 conn=delta model=3 kv=0.38 kw = 344.50164609320353 pf=0.92 status=variable vmaxpu=1.5 vminpu=0.93 daily="RES_2_SA"
 
New "Load.BT_1829_M1" bus1="UC15079.3.4" phases=1 conn=delta model=2 kv=0.22 kw = 518.2509218407312 pf=0.92 status=variable vmaxpu=1.5 vminpu=0.93 daily="RES_11_SA" 
New "Load.BT_1829_M2" bus1="UC15079.3.4" phases=1 conn=delta model=3 kv=0.22 kw = 518.2509218407312 pf=0.92 status=variable vmaxpu=1.5 vminpu=0.93 daily="RES_11_SA"
 
New "Load.BT_1959_M1" bus1="UC2860.2.4" phases=1 conn=delta model=2 kv=0.22 kw = 627.8301026932214 pf=0.92 status=variable vmaxpu=1.5 vminpu=0.93 daily="RES_2_SA" 
New "Load.BT_1959_M2" bus1="UC2860.2.4" phases=1 conn=delta model=3 kv=0.22 kw = 627.8301026932214 pf=0.92 status=variable vmaxpu=1.5 vminpu=0.93 daily="RES_2_SA"
 
New "Load.BT_3034_M1" bus1="UC14783.1.2.3.4" phases=3 conn=delta model=2 kv=0.38 kw = 727.0104062259998 pf=0.92 status=variable vmaxpu=1.5 vminpu=0.93 daily="RES_5_SA" 
New "Load.BT_3034_M2" bus1="UC14783.1.2.3.4" phases=3 conn=delta model=3 kv=0.38 kw = 727.0104062259998 pf=0.92 status=variable vmaxpu=1.5 vminpu=0.93 daily="RES_5_SA"
 
New "Load.BT_901_M1" bus1="UC5377.3.4" phases=1 conn=delta model=2 kv=0.22 kw = 0.0 pf=0.92 status=variable vmaxpu=1.5 vminpu=0.93 daily="COM_5_SA" 
New "Load.BT_901_M2" bus1="UC5377.3.4" phases=1 conn=delta model=3 kv=0.22 kw = 0.0 pf=0.92 status=variable vmaxpu=1.5 vminpu=0.93 daily="COM_5_SA"
 
New "Load.BT_1124_M1" bus1="UC15362.3.1.4" phases=2 conn=delta model=2 kv=0.38 kw = 0.0 pf=0.92 status=variable vmaxpu=1.5 vminpu=0.93 daily="RES_3_SA" 
New "Load.BT_1124_M2" bus1="UC15362.3.1.4" phases=2 conn=delta model=3 kv=0.38 kw = 0.0 pf=0.92 status=variable vmaxpu=1.5 vminpu=0.93 daily="RES_3_SA"
 
New "Load.BT_1124_M1" bus1="UC15362.1.2.4" phases=2 conn=delta model=2 kv=0.38 kw = 0.0 pf=0.92 status=variable vmaxpu=1.5 vminpu=0.93 daily="RES_3_SA" 
New "Load.BT_1124_M2" bus1="UC15362.1.2.4" phases=2 conn=delta model=3 kv=0.38 kw = 0.0 pf=0.92 status=variable vmaxpu=1.5 vminpu=0.93 daily="RES_3_SA"
 
New "Load.BT_2344_M1" bus1="UC2835.3.4" phases=1 conn=delta model=2 kv=0.22 kw = 0.0 pf=0.92 status=variable vmaxpu=1.5 vminpu=0.93 daily="RES_3_SA" 
New "Load.BT_2344_M2" bus1="UC2835.3.4" phases=1 conn=delta model=3 kv=0.22 kw = 0.0 pf=0.92 status=variable vmaxpu=1.5 vminpu=0.93 daily="RES_3_SA"
 
New "Load.BT_7439_M1" bus1="UC16096.2.4" phases=1 conn=delta model=2 kv=0.22 kw = 0.0 pf=0.92 status=variable vmaxpu=1.5 vminpu=0.93 daily="RES_7_SA" 
New "Load.BT_7439_M2" bus1="UC16096.2.4" phases=1 conn=delta model=3 kv=0.22 kw = 0.0 pf=0.92 status=variable vmaxpu=1.5 vminpu=0.93 daily="RES_7_SA"
 
New "Load.BT_6954_M1" bus1="UC16099.3.4" phases=1 conn=delta model=2 kv=0.22 kw = 0.0 pf=0.92 status=variable vmaxpu=1.5 vminpu=0.93 daily="COM_1_SA" 
New "Load.BT_6954_M2" bus1="UC16099.3.4" phases=1 conn=delta model=3 kv=0.22 kw = 0.0 pf=0.92 status=variable vmaxpu=1.5 vminpu=0.93 daily="COM_1_SA"
 
New "Load.BT_1112_M1" bus1="UC8981.3.4" phases=1 conn=delta model=2 kv=0.22 kw = 0.0 pf=0.92 status=variable vmaxpu=1.5 vminpu=0.93 daily="RES_7_SA" 
New "Load.BT_1112_M2" bus1="UC8981.3.4" phases=1 conn=delta model=3 kv=0.22 kw = 0.0 pf=0.92 status=variable vmaxpu=1.5 vminpu=0.93 daily="RES_7_SA"
 
New "Load.BT_2626_M1" bus1="UC16100.3.4" phases=1 conn=delta model=2 kv=0.22 kw = 0.0 pf=0.92 status=variable vmaxpu=1.5 vminpu=0.93 daily="RES_3_SA" 
New "Load.BT_2626_M2" bus1="UC16100.3.4" phases=1 conn=delta model=3 kv=0.22 kw = 0.0 pf=0.92 status=variable vmaxpu=1.5 vminpu=0.93 daily="RES_3_SA"
 
New "Load.BT_1516_M1" bus1="UC16103.3.4" phases=1 conn=delta model=2 kv=0.22 kw = 0.0 pf=0.92 status=variable vmaxpu=1.5 vminpu=0.93 daily="RES_3_SA" 
New "Load.BT_1516_M2" bus1="UC16103.3.4" phases=1 conn=delta model=3 kv=0.22 kw = 0.0 pf=0.92 status=variable vmaxpu=1.5 vminpu=0.93 daily="RES_3_SA"
 
New "Load.BT_2623_M1" bus1="UC15510.1.2.4" phases=2 conn=delta model=2 kv=0.38 kw = 0.0 pf=0.92 status=variable vmaxpu=1.5 vminpu=0.93 daily="RES_3_SA" 
New "Load.BT_2623_M2" bus1="UC15510.1.2.4" phases=2 conn=delta model=3 kv=0.38 kw = 0.0 pf=0.92 status=variable vmaxpu=1.5 vminpu=0.93 daily="RES_3_SA"
 
New "Load.BT_1124_M1" bus1="UC15362.1.2.3.4" phases=3 conn=delta model=2 kv=0.38 kw = 0.0 pf=0.92 status=variable vmaxpu=1.5 vminpu=0.93 daily="COM_5_SA" 
New "Load.BT_1124_M2" bus1="UC15362.1.2.3.4" phases=3 conn=delta model=3 kv=0.38 kw = 0.0 pf=0.92 status=variable vmaxpu=1.5 vminpu=0.93 daily="COM_5_SA"
 
New "Load.BT_2214_M1" bus1="UC11074.3.4" phases=1 conn=delta model=2 kv=0.22 kw = 0.0 pf=0.92 status=variable vmaxpu=1.5 vminpu=0.93 daily="COM_5_SA" 
New "Load.BT_2214_M2" bus1="UC11074.3.4" phases=1 conn=delta model=3 kv=0.22 kw = 0.0 pf=0.92 status=variable vmaxpu=1.5 vminpu=0.93 daily="COM_5_SA"
 
New "Load.BT_8544_M1" bus1="UC16080.2.4" phases=1 conn=delta model=2 kv=0.22 kw = 0.0 pf=0.92 status=variable vmaxpu=1.5 vminpu=0.93 daily="RES_7_SA" 
New "Load.BT_8544_M2" bus1="UC16080.2.4" phases=1 conn=delta model=3 kv=0.22 kw = 0.0 pf=0.92 status=variable vmaxpu=1.5 vminpu=0.93 daily="RES_7_SA"
 
New "Load.BT_387_M1" bus1="UC15581.1.2.3.4" phases=3 conn=delta model=2 kv=0.38 kw = 0.0 pf=0.92 status=variable vmaxpu=1.5 vminpu=0.93 daily="RES_3_SA" 
New "Load.BT_387_M2" bus1="UC15581.1.2.3.4" phases=3 conn=delta model=3 kv=0.38 kw = 0.0 pf=0.92 status=variable vmaxpu=1.5 vminpu=0.93 daily="RES_3_SA"
 
New "Load.BT_1113_M1" bus1="UC6951.3.4" phases=1 conn=delta model=2 kv=0.22 kw = 0.0 pf=0.92 status=variable vmaxpu=1.5 vminpu=0.93 daily="RES_7_SA" 
New "Load.BT_1113_M2" bus1="UC6951.3.4" phases=1 conn=delta model=3 kv=0.22 kw = 0.0 pf=0.92 status=variable vmaxpu=1.5 vminpu=0.93 daily="RES_7_SA"
 
New "Load.BT_539_M1" bus1="UC11814.1.2.4" phases=2 conn=delta model=2 kv=0.38 kw = 0.0 pf=0.92 status=variable vmaxpu=1.5 vminpu=0.93 daily="RES_3_SA" 
New "Load.BT_539_M2" bus1="UC11814.1.2.4" phases=2 conn=delta model=3 kv=0.38 kw = 0.0 pf=0.92 status=variable vmaxpu=1.5 vminpu=0.93 daily="RES_3_SA"
 
New "Load.BT_1858_M1" bus1="UC5368.1.2.3.4" phases=3 conn=delta model=2 kv=0.38 kw = 0.0 pf=0.92 status=variable vmaxpu=1.5 vminpu=0.93 daily="RES_3_SA" 
New "Load.BT_1858_M2" bus1="UC5368.1.2.3.4" phases=3 conn=delta model=3 kv=0.38 kw = 0.0 pf=0.92 status=variable vmaxpu=1.5 vminpu=0.93 daily="RES_3_SA"
 
New "Load.BT_539_M1" bus1="UC11814.3.1.4" phases=2 conn=delta model=2 kv=0.38 kw = 0.0 pf=0.92 status=variable vmaxpu=1.5 vminpu=0.93 daily="RES_7_SA" 
New "Load.BT_539_M2" bus1="UC11814.3.1.4" phases=2 conn=delta model=3 kv=0.38 kw = 0.0 pf=0.92 status=variable vmaxpu=1.5 vminpu=0.93 daily="RES_7_SA"
 
New "Load.BT_7327_M1" bus1="UC13253.1.2.4" phases=2 conn=delta model=2 kv=0.38 kw = 0.0 pf=0.92 status=variable vmaxpu=1.5 vminpu=0.93 daily="RES_3_SA" 
New "Load.BT_7327_M2" bus1="UC13253.1.2.4" phases=2 conn=delta model=3 kv=0.38 kw = 0.0 pf=0.92 status=variable vmaxpu=1.5 vminpu=0.93 daily="RES_3_SA"
 
New "Load.BT_2623_M1" bus1="UC15510.3.1.4" phases=2 conn=delta model=2 kv=0.38 kw = 0.0 pf=0.92 status=variable vmaxpu=1.5 vminpu=0.93 daily="RES_7_SA" 
New "Load.BT_2623_M2" bus1="UC15510.3.1.4" phases=2 conn=delta model=3 kv=0.38 kw = 0.0 pf=0.92 status=variable vmaxpu=1.5 vminpu=0.93 daily="RES_7_SA"
 
New "Load.BT_2215_M1" bus1="UC12303.2.4" phases=1 conn=delta model=2 kv=0.22 kw = 0.0 pf=0.92 status=variable vmaxpu=1.5 vminpu=0.93 daily="RES_7_SA" 
New "Load.BT_2215_M2" bus1="UC12303.2.4" phases=1 conn=delta model=3 kv=0.22 kw = 0.0 pf=0.92 status=variable vmaxpu=1.5 vminpu=0.93 daily="RES_7_SA"
 
New "Load.BT_358_M1" bus1="UC12262.1.4" phases=1 conn=delta model=2 kv=0.22 kw = 0.0 pf=0.92 status=variable vmaxpu=1.5 vminpu=0.93 daily="RES_7_SA" 
New "Load.BT_358_M2" bus1="UC12262.1.4" phases=1 conn=delta model=3 kv=0.22 kw = 0.0 pf=0.92 status=variable vmaxpu=1.5 vminpu=0.93 daily="RES_7_SA"
 
New "Load.BT_555_M1" bus1="UC15769.2.4" phases=1 conn=delta model=2 kv=0.22 kw = 399.23555248184334 pf=0.92 status=variable vmaxpu=1.5 vminpu=0.93 daily="RES_2_SA" 
New "Load.BT_555_M2" bus1="UC15769.2.4" phases=1 conn=delta model=3 kv=0.22 kw = 399.23555248184334 pf=0.92 status=variable vmaxpu=1.5 vminpu=0.93 daily="RES_2_SA"
 
New "Load.BT_1430_M1" bus1="UC9154.3.4" phases=1 conn=delta model=2 kv=0.22 kw = 274.9620947575912 pf=0.92 status=variable vmaxpu=1.5 vminpu=0.93 daily="COM_1_SA" 
New "Load.BT_1430_M2" bus1="UC9154.3.4" phases=1 conn=delta model=3 kv=0.22 kw = 274.9620947575912 pf=0.92 status=variable vmaxpu=1.5 vminpu=0.93 daily="COM_1_SA"
 
New "Load.BT_2920_M1" bus1="UC15771.1.2.3.4" phases=3 conn=delta model=2 kv=0.38 kw = 495.2533636569479 pf=0.92 status=variable vmaxpu=1.5 vminpu=0.93 daily="COM_1_SA" 
New "Load.BT_2920_M2" bus1="UC15771.1.2.3.4" phases=3 conn=delta model=3 kv=0.38 kw = 495.2533636569479 pf=0.92 status=variable vmaxpu=1.5 vminpu=0.93 daily="COM_1_SA"
 
New "Load.BT_7655_M1" bus1="UC15774.1.4" phases=1 conn=delta model=2 kv=0.22 kw = 6.4392831045458605 pf=0.92 status=variable vmaxpu=1.5 vminpu=0.93 daily="RES_2_SA" 
New "Load.BT_7655_M2" bus1="UC15774.1.4" phases=1 conn=delta model=3 kv=0.22 kw = 6.4392831045458605 pf=0.92 status=variable vmaxpu=1.5 vminpu=0.93 daily="RES_2_SA"
 
New "Load.BT_1880_M1" bus1="UC5019.1.4" phases=1 conn=delta model=2 kv=0.22 kw = 508.70336525912296 pf=0.92 status=variable vmaxpu=1.5 vminpu=0.93 daily="RES_2_SA" 
New "Load.BT_1880_M2" bus1="UC5019.1.4" phases=1 conn=delta model=3 kv=0.22 kw = 508.70336525912296 pf=0.92 status=variable vmaxpu=1.5 vminpu=0.93 daily="RES_2_SA"
 
New "Load.BT_1209_M1" bus1="UC15445.3.4" phases=1 conn=delta model=2 kv=0.22 kw = 457.1891004227561 pf=0.92 status=variable vmaxpu=1.5 vminpu=0.93 daily="RES_2_SA" 
New "Load.BT_1209_M2" bus1="UC15445.3.4" phases=1 conn=delta model=3 kv=0.22 kw = 457.1891004227561 pf=0.92 status=variable vmaxpu=1.5 vminpu=0.93 daily="RES_2_SA"
 
New "Load.BT_2215_M1" bus1="UC7160.1.4" phases=1 conn=delta model=2 kv=0.22 kw = 130.24520277991164 pf=0.92 status=variable vmaxpu=1.5 vminpu=0.93 daily="COM_1_SA" 
New "Load.BT_2215_M2" bus1="UC7160.1.4" phases=1 conn=delta model=3 kv=0.22 kw = 130.24520277991164 pf=0.92 status=variable vmaxpu=1.5 vminpu=0.93 daily="COM_1_SA"
 
New "Load.BT_628_M1" bus1="UC7914.1.4" phases=1 conn=delta model=2 kv=0.22 kw = 101.3018243843757 pf=0.92 status=variable vmaxpu=1.5 vminpu=0.93 daily="COM_1_SA" 
New "Load.BT_628_M2" bus1="UC7914.1.4" phases=1 conn=delta model=3 kv=0.22 kw = 101.3018243843757 pf=0.92 status=variable vmaxpu=1.5 vminpu=0.93 daily="COM_1_SA"
 
New "Load.BT_1234_M1" bus1="UC15448.1.4" phases=1 conn=delta model=2 kv=0.22 kw = 16.09820776136465 pf=0.92 status=variable vmaxpu=1.5 vminpu=0.93 daily="RES_2_SA" 
New "Load.BT_1234_M2" bus1="UC15448.1.4" phases=1 conn=delta model=3 kv=0.22 kw = 16.09820776136465 pf=0.92 status=variable vmaxpu=1.5 vminpu=0.93 daily="RES_2_SA"
 
New "Load.BT_1380_M1" bus1="UC10064.3.4" phases=1 conn=delta model=2 kv=0.22 kw = 618.7737299563903 pf=0.92 status=variable vmaxpu=1.5 vminpu=0.93 daily="RES_11_SA" 
New "Load.BT_1380_M2" bus1="UC10064.3.4" phases=1 conn=delta model=3 kv=0.22 kw = 618.7737299563903 pf=0.92 status=variable vmaxpu=1.5 vminpu=0.93 daily="RES_11_SA"
 
New "Load.BT_785_M1" bus1="UC9638.3.4" phases=1 conn=delta model=2 kv=0.22 kw = 819.369280732118 pf=0.92 status=variable vmaxpu=1.5 vminpu=0.93 daily="RES_1_SA" 
New "Load.BT_785_M2" bus1="UC9638.3.4" phases=1 conn=delta model=3 kv=0.22 kw = 819.369280732118 pf=0.92 status=variable vmaxpu=1.5 vminpu=0.93 daily="RES_1_SA"
 
New "Load.BT_7701_M1" bus1="UC15452.1.2.3.4" phases=3 conn=delta model=2 kv=0.38 kw = 1094.6781277727964 pf=0.92 status=variable vmaxpu=1.5 vminpu=0.93 daily="RES_2_SA" 
New "Load.BT_7701_M2" bus1="UC15452.1.2.3.4" phases=3 conn=delta model=3 kv=0.38 kw = 1094.6781277727964 pf=0.92 status=variable vmaxpu=1.5 vminpu=0.93 daily="RES_2_SA"
 
New "Load.BT_387_M1" bus1="UC15581.1.4" phases=1 conn=delta model=2 kv=0.22 kw = 0.0 pf=0.92 status=variable vmaxpu=1.5 vminpu=0.93 daily="RES_3_SA" 
New "Load.BT_387_M2" bus1="UC15581.1.4" phases=1 conn=delta model=3 kv=0.22 kw = 0.0 pf=0.92 status=variable vmaxpu=1.5 vminpu=0.93 daily="RES_3_SA"
 
New "Load.BT_3034_M1" bus1="UC14783.1.2.3.4" phases=3 conn=delta model=2 kv=0.38 kw = 0.0 pf=0.92 status=variable vmaxpu=1.5 vminpu=0.93 daily="RES_3_SA" 
New "Load.BT_3034_M2" bus1="UC14783.1.2.3.4" phases=3 conn=delta model=3 kv=0.38 kw = 0.0 pf=0.92 status=variable vmaxpu=1.5 vminpu=0.93 daily="RES_3_SA"
 
New "Load.BT_1124_M1" bus1="UC8867.1.4" phases=1 conn=delta model=2 kv=0.22 kw = 0.0 pf=0.92 status=variable vmaxpu=1.5 vminpu=0.93 daily="RES_3_SA" 
New "Load.BT_1124_M2" bus1="UC8867.1.4" phases=1 conn=delta model=3 kv=0.22 kw = 0.0 pf=0.92 status=variable vmaxpu=1.5 vminpu=0.93 daily="RES_3_SA"
 
New "Load.BT_121_M1" bus1="UC12650.2.3.4" phases=2 conn=delta model=2 kv=0.38 kw = 0.0 pf=0.92 status=variable vmaxpu=1.5 vminpu=0.93 daily="RES_7_SA" 
New "Load.BT_121_M2" bus1="UC12650.2.3.4" phases=2 conn=delta model=3 kv=0.38 kw = 0.0 pf=0.92 status=variable vmaxpu=1.5 vminpu=0.93 daily="RES_7_SA"
 
New "Load.BT_239_M1" bus1="UC16074.1.2.3.4" phases=3 conn=delta model=2 kv=0.38 kw = 0.0 pf=0.92 status=variable vmaxpu=1.5 vminpu=0.93 daily="RES_3_SA" 
New "Load.BT_239_M2" bus1="UC16074.1.2.3.4" phases=3 conn=delta model=3 kv=0.38 kw = 0.0 pf=0.92 status=variable vmaxpu=1.5 vminpu=0.93 daily="RES_3_SA"
 
New "Load.BT_8152_M1" bus1="UC16078.1.2.4" phases=2 conn=delta model=2 kv=0.38 kw = 0.0 pf=0.92 status=variable vmaxpu=1.5 vminpu=0.93 daily="RES_7_SA" 
New "Load.BT_8152_M2" bus1="UC16078.1.2.4" phases=2 conn=delta model=3 kv=0.38 kw = 0.0 pf=0.92 status=variable vmaxpu=1.5 vminpu=0.93 daily="RES_7_SA"
 
New "Load.BT_8398_M1" bus1="UC15580.2.4" phases=1 conn=delta model=2 kv=0.22 kw = 344.50164609320353 pf=0.92 status=variable vmaxpu=1.5 vminpu=0.93 daily="RES_2_SA" 
New "Load.BT_8398_M2" bus1="UC15580.2.4" phases=1 conn=delta model=3 kv=0.22 kw = 344.50164609320353 pf=0.92 status=variable vmaxpu=1.5 vminpu=0.93 daily="RES_2_SA"
 
New "Load.BT_2466_M1" bus1="UC15707.1.4" phases=1 conn=delta model=2 kv=0.22 kw = 357.38021230229526 pf=0.92 status=variable vmaxpu=1.5 vminpu=0.93 daily="RES_2_SA" 
New "Load.BT_2466_M2" bus1="UC15707.1.4" phases=1 conn=delta model=3 kv=0.22 kw = 357.38021230229526 pf=0.92 status=variable vmaxpu=1.5 vminpu=0.93 daily="RES_2_SA"
 
New "Load.BT_2214_M1" bus1="UC11074.1.4" phases=1 conn=delta model=2 kv=0.22 kw = 106.12572078363169 pf=0.92 status=variable vmaxpu=1.5 vminpu=0.93 daily="COM_1_SA" 
New "Load.BT_2214_M2" bus1="UC11074.1.4" phases=1 conn=delta model=3 kv=0.22 kw = 106.12572078363169 pf=0.92 status=variable vmaxpu=1.5 vminpu=0.93 daily="COM_1_SA"
 
New "Load.BT_1112_M1" bus1="UC8981.2.4" phases=1 conn=delta model=2 kv=0.22 kw = 138.444586747736 pf=0.92 status=variable vmaxpu=1.5 vminpu=0.93 daily="RES_2_SA" 
New "Load.BT_1112_M2" bus1="UC8981.2.4" phases=1 conn=delta model=3 kv=0.22 kw = 138.444586747736 pf=0.92 status=variable vmaxpu=1.5 vminpu=0.93 daily="RES_2_SA"
 
New "Load.BT_6942_M1" bus1="UC15761.1.2.3.4" phases=3 conn=delta model=2 kv=0.38 kw = 141.66422830000894 pf=0.92 status=variable vmaxpu=1.5 vminpu=0.93 daily="RES_2_SA" 
New "Load.BT_6942_M2" bus1="UC15761.1.2.3.4" phases=3 conn=delta model=3 kv=0.38 kw = 141.66422830000894 pf=0.92 status=variable vmaxpu=1.5 vminpu=0.93 daily="RES_2_SA"
 
New "Load.BT_2085_M1" bus1="UC15760.1.2.3.4" phases=3 conn=delta model=2 kv=0.38 kw = 16.07965466418662 pf=0.92 status=variable vmaxpu=1.5 vminpu=0.93 daily="COM_1_SA" 
New "Load.BT_2085_M2" bus1="UC15760.1.2.3.4" phases=3 conn=delta model=3 kv=0.38 kw = 16.07965466418662 pf=0.92 status=variable vmaxpu=1.5 vminpu=0.93 daily="COM_1_SA"
 
New "Load.BT_702_M1" bus1="UC8051.1.2.4" phases=2 conn=delta model=2 kv=0.38 kw = 1229.9030729682593 pf=0.92 status=variable vmaxpu=1.5 vminpu=0.93 daily="RES_2_SA" 
New "Load.BT_702_M2" bus1="UC8051.1.2.4" phases=2 conn=delta model=3 kv=0.38 kw = 1229.9030729682593 pf=0.92 status=variable vmaxpu=1.5 vminpu=0.93 daily="RES_2_SA"
 
New "Load.BT_7425_M1" bus1="UC15763.3.4" phases=1 conn=delta model=2 kv=0.22 kw = 0.0 pf=0.92 status=variable vmaxpu=1.5 vminpu=0.93 daily="RES_2_SA" 
New "Load.BT_7425_M2" bus1="UC15763.3.4" phases=1 conn=delta model=3 kv=0.22 kw = 0.0 pf=0.92 status=variable vmaxpu=1.5 vminpu=0.93 daily="RES_2_SA"
 
New "Load.BT_854_M1" bus1="UC13201.2.4" phases=1 conn=delta model=2 kv=0.22 kw = 424.99268490002686 pf=0.92 status=variable vmaxpu=1.5 vminpu=0.93 daily="RES_2_SA" 
New "Load.BT_854_M2" bus1="UC13201.2.4" phases=1 conn=delta model=3 kv=0.22 kw = 424.99268490002686 pf=0.92 status=variable vmaxpu=1.5 vminpu=0.93 daily="RES_2_SA"
 
New "Load.BT_854_M1" bus1="UC13201.3.4" phases=1 conn=delta model=2 kv=0.22 kw = 872.5228606659641 pf=0.92 status=variable vmaxpu=1.5 vminpu=0.93 daily="RES_2_SA" 
New "Load.BT_854_M2" bus1="UC13201.3.4" phases=1 conn=delta model=3 kv=0.22 kw = 872.5228606659641 pf=0.92 status=variable vmaxpu=1.5 vminpu=0.93 daily="RES_2_SA"
 
New "Load.BT_3034_M1" bus1="UC14783.1.2.3.4" phases=3 conn=delta model=2 kv=0.38 kw = 457.9372369713357 pf=0.92 status=variable vmaxpu=1.5 vminpu=0.93 daily="RES_11_SA" 
New "Load.BT_3034_M2" bus1="UC14783.1.2.3.4" phases=3 conn=delta model=3 kv=0.38 kw = 457.9372369713357 pf=0.92 status=variable vmaxpu=1.5 vminpu=0.93 daily="RES_11_SA"
 
New "Load.BT_1436_M1" bus1="UC14964.2.4" phases=1 conn=delta model=2 kv=0.22 kw = 429.99958121065697 pf=0.92 status=variable vmaxpu=1.5 vminpu=0.93 daily="RES_1_SA" 
New "Load.BT_1436_M2" bus1="UC14964.2.4" phases=1 conn=delta model=3 kv=0.22 kw = 429.99958121065697 pf=0.92 status=variable vmaxpu=1.5 vminpu=0.93 daily="RES_1_SA"
 
New "Load.BT_490_M1" bus1="UC6077.1.4" phases=1 conn=delta model=2 kv=0.22 kw = 325.18379677956597 pf=0.92 status=variable vmaxpu=1.5 vminpu=0.93 daily="RES_2_SA" 
New "Load.BT_490_M2" bus1="UC6077.1.4" phases=1 conn=delta model=3 kv=0.22 kw = 325.18379677956597 pf=0.92 status=variable vmaxpu=1.5 vminpu=0.93 daily="RES_2_SA"
 
New "Load.BT_18_M1" bus1="UC5043.1.4" phases=1 conn=delta model=2 kv=0.22 kw = 135.0690991791676 pf=0.92 status=variable vmaxpu=1.5 vminpu=0.93 daily="COM_1_SA" 
New "Load.BT_18_M2" bus1="UC5043.1.4" phases=1 conn=delta model=3 kv=0.22 kw = 135.0690991791676 pf=0.92 status=variable vmaxpu=1.5 vminpu=0.93 daily="COM_1_SA"
 
New "Load.BT_1105_M1" bus1="UC8362.3.4" phases=1 conn=delta model=2 kv=0.22 kw = 647.4858284260079 pf=0.92 status=variable vmaxpu=1.5 vminpu=0.93 daily="RES_13_SA" 
New "Load.BT_1105_M2" bus1="UC8362.3.4" phases=1 conn=delta model=3 kv=0.22 kw = 647.4858284260079 pf=0.92 status=variable vmaxpu=1.5 vminpu=0.93 daily="RES_13_SA"
 
New "Load.BT_3010_M1" bus1="UC14890.1.2.3.4" phases=3 conn=delta model=2 kv=0.38 kw = 357.38021230229526 pf=0.92 status=variable vmaxpu=1.5 vminpu=0.93 daily="RES_2_SA" 
...